Flow Title=steady_flow
Program Version=6.31
Number of Profiles= 1 
Profile Names=PF_1
River Rch & RM=River_1,3               ,81792   
    3500
Boundary for River Rch & Prof#=River_1,3               , 1 
Up Type= 2 
Dn Type= 3 
Dn Slope=0.002
DSS Import StartDate=
DSS Import StartTime=
DSS Import EndDate=
DSS Import EndTime=
DSS Import GetInterval= 0 
DSS Import Interval=
DSS Import GetPeak= 0 
DSS Import FillOption= 0 
