Geom Title=geometry_1
Program Version=6.31
Viewing Rectangle=-4323.28719692044 , 24002.2881876952 , 1928741.71665786 , 1901365.18756837 

River Reach=River_1         ,3               
Reach XY= 13 
16924.97529561981920117.8957689616127.7732931333 1919713.9800877
14597.14544835931919448.2460868712758.26616262371918236.49904309
11589.03655897691917141.674959689431.276472246791915908.66919583
7443.586146047151914176.08351043 5275.19669928391912177.76382419
3510.722933780461910477.066218892787.926451526051908244.90061193
1873.801488674871906374.13324609-422.140278486211905183.64492238
-2271.64892425481904439.58972006
Rch Text X Y=12125.8192407,1916198.3192567
Reverse River Text= 0 

Type RM Length L Ch R = 1 ,81792   ,2266.6,2266.6,2266.6
XS GIS Cut Line=2
17131.99280307971918660.0367927114305.71588000281921800.34448502
Node Last Edited Time=Mar/04/2023 17:50:51
#Sta/Elev= 296 
     6.9  528.44    21.3   528.2    28.1  528.06    34.2  528.08    49.4  528.33
    66.2  528.22    74.6  528.12    91.9  527.99     111  528.12   113.1  528.12
     115  528.09   134.3  527.38   155.6   526.9   176.8  526.55   195.7  525.69
   198.1  525.63   200.7  525.61   219.3  525.35     236  525.06   240.5  525.01
   245.5  524.98   276.4  524.93     283  524.83   290.4  524.75   304.3  524.48
   316.8  524.29   325.5  524.24   335.2  524.24   346.8  524.29   357.1  524.47
     368  524.56   380.1  524.41   389.2  524.33   397.5  524.47   410.5  524.56
   424.9  524.59   431.7  524.55   437.9  524.57     453   524.3   474.2  523.35
   478.2  523.61   495.5  525.34   514.6  528.85   518.6  530.04   537.9  530.52
   554.1  529.55   558.9  529.28   559.2  529.29   559.5  529.25   580.4  528.55
   599.3  525.54   601.7  525.66   604.3  525.51   622.9  525.07   639.7  522.67
   644.2  522.71   649.2  522.69   665.4  522.87     680  522.39   686.6  521.63
     694  520.87   707.9  519.49   720.4  518.13   729.1  518.36   738.8  518.79
   750.4  519.18   760.7  519.15   771.6  520.79   783.7  520.46   792.9   520.9
   801.1  520.78   814.1  520.93   828.5  520.93   835.3  521.05   841.5  520.73
   856.6  521.18   873.4  521.11   877.8  521.32   881.8   521.1   899.1  522.35
   918.2  525.59   920.3  525.88   922.2  525.78   941.6  524.45   957.7  526.21
   962.5  526.69     984  526.94  1005.3  526.85  1026.5  527.22  1047.8  527.43
  1052.8  527.51    1069  527.61  1083.6  527.85  1090.3   527.8  1097.6  527.84
  1111.5  527.49    1124  526.77  1132.7  526.13  1142.5  525.63    1154  525.67
  1164.3  525.83  1175.2  523.51  1187.3  520.53  1196.5   518.1  1204.7  516.03
  1223.7  516.03  1232.1  516.03    1277     516  1546.1     516  1590.9  515.97
  1680.6  515.97  1799.5515.8874  1810.1  515.88  1833.7  515.89  1890.8  515.88
  1897.5  517.56  1904.8  519.21  1918.7     522  1931.2  523.55    1940  523.33
  1949.7  523.73  1961.2  524.55  1971.6  525.53  1982.4  525.41  2011.9  524.97
  2024.9  524.74  2039.4  524.45  2046.2  524.37  2052.3   524.3  2084.2  524.07
  2088.7     524  2092.6     524  2109.9   524.6  2131.1  525.14    2133  525.19
  2152.4  524.91  2173.4  524.23  2194.9  523.32  2213.7  522.54  2218.7  522.61
  2237.3   523.3  2254.1  523.99  2258.6  524.24  2263.6  524.47  2279.8  525.36
  2294.5  526.03  2301.1  526.12  2308.4  526.11  2322.3  525.83  2334.8  525.73
  2343.6  525.61  2353.3  525.48  2364.8  525.43  2375.2  525.42    2386  525.44
  2398.1  525.42  2407.3  525.43  2415.5  525.47  2428.5  525.51    2443  525.46
    2471   525.1  2487.8  524.82  2492.3  524.76  2496.3  524.69  2513.5  523.88
  2534.7  522.43  2536.6  522.32    2556  521.55  2572.2  521.06    2577  520.91
  2577.2   520.9  2577.5  520.88  2598.5  519.81  2617.3  519.91  2619.7  520.06
  2622.4  520.17    2641  520.86  2657.7  521.53  2683.4  522.79  2698.1   523.4
  2704.7  523.58    2712  523.79  2725.9  524.12  2738.4  524.38  2747.2   524.5
  2756.9  524.59  2768.4  524.67  2778.8  524.69  2789.7   524.8  2810.9  525.09
  2819.1  525.22  2846.6  526.03  2853.4  526.21  2859.5  526.46  2874.6  526.63
  2891.4  526.66  2895.9   526.6  2899.9  526.56  2917.1  525.84  2936.3  524.86
  2938.4  524.75  2940.2  524.69  2959.6  523.96  2975.8  523.32  2980.8  523.12
  3002.1  522.36  3020.9  521.77  3023.3  521.69  3044.6  521.15  3061.3  520.99
  3087.1  521.74  3101.7  522.29  3108.3  522.41  3129.5  522.63    3142   522.7
  3150.8  522.91  3160.5  523.16    3172  523.51  3182.4  523.92  3193.3  524.44
  3205.3  525.09  3222.8  525.95  3235.7   526.4  3250.2  526.79    3257  526.93
  3263.1  526.96    3295  526.69  3303.5  526.69  3320.7  526.81  3339.9  526.83
    3342  526.84  3343.8  526.84  3363.2   526.9  3405.7  526.76  3429.6  526.87
  3448.2  526.79  3464.9  526.65  3469.4  526.63  3474.4  526.65  3490.7  526.75
  3505.3  526.78  3519.3  526.84  3533.1  526.95  3545.6     527  3554.4  526.98
  3564.1  526.89  3575.6  526.74    3586  526.52  3596.9  526.34    3609  526.19
  3618.1  526.14  3626.4  526.06  3639.4  525.71  3666.7  524.53  3681.8  523.95
  3703.1  523.31  3707.1  523.24  3724.3  523.37  3745.6  523.61  3766.8  524.19
    3783  524.48  3787.8  524.56  3828.2  524.91  3830.5  524.91  3833.2  524.92
  3868.5  525.18    3878  525.35  3894.3  525.83  3908.9   526.3  3915.5  526.55
  3922.9  526.89  3936.8  527.63  3949.2  528.19    3958   528.6  3967.7  528.97
  3979.2  529.25  3989.6  529.36  4000.5  529.48  4021.7  530.06    4030  530.22
    4043  530.31  4057.4  530.35  4064.2  530.37  4070.3  530.41  4085.5  530.63
  4102.3  530.97  4106.7  531.09  4110.7  531.16  4127.9  531.27  4147.1  531.37
  4149.2  531.38  4151.1  531.42  4191.4  532.21  4191.7  532.22  4212.9  532.28
  4224.9  532.33
#Mann= 1 ,-1,0
     6.9    .015       0
Levee=-1,1063.98,527.79,0,,,,
Bank Sta=1223.7,1799.5
XS Rating Curve= 0 ,0
XS HTab Starting El and Incr=516.0374,0.3, 54 
XS HTab Horizontal Distribution= 5 , 5 , 5 
Exp/Cntr(USF)=0,0
Exp/Cntr=0.3,0.1

Type RM Length L Ch R = 1 ,74355   ,1153.2,1153.2,1153.2
XS GIS Cut Line=2
14759.31588000281918136.6521773313049.59280307971920369.75986964
Node Last Edited Time=Jun/21/2021 16:52:42
#Sta/Elev= 184 
       0  528.57    11.1  528.72    19.1  528.85      36  529.09    78.8  529.48
    86.7  529.54   100.2  529.72   121.6  529.98   162.3  530.25   167.1  530.24
   185.8  530.12     200   530.1   207.2  530.12   216.5  530.23   228.6  530.34
   237.8  530.38     250  530.38   275.6  530.47   315.2  530.43   335.6   530.3
   351.2  530.17   378.4  529.57     389   529.3   399.8   528.9   413.9  528.24
   426.7  527.61     464  525.73   485.4  525.03   502.3  524.63   506.8  524.58
   528.2  524.48   540.1  524.52   561.9  524.92   577.9  525.25   592.3  525.46
   613.7  525.58   635.1  525.74   653.4  525.89   677.9  526.01   691.2  526.21
   699.3  526.35     710  526.48     729  526.67   742.1  526.87   784.9  527.35
   804.6  527.62   808.7  527.66   827.7  527.96   842.4  528.11   849.1   528.2
   870.5  528.33   880.1  528.34   907.3  528.73   917.9  528.92   934.7  529.46
   952.5  530.49   955.7  530.66   956.1  530.67   956.7  530.67   977.5  529.95
   987.6529.1609   993.5   528.7   998.9  527.23    1006  524.03  1020.3  518.69
  1031.3  515.42  1055.4  515.41  1351.5  515.41  1371.3  515.39  1405.5   515.4
  1446.9  515.38  1484.7  515.38  1485.8515.5295  1491.1  516.25  1499.5  518.28
  1512.5  521.43  1522.5  522.94  1533.9  523.11  1548.9  523.27  1555.3   523.3
  1560.2  523.32  1576.7  523.51  1598.2  523.94  1619.5  524.64  1635.8  525.23
  1640.9  525.32  1647.6  525.37  1662.3  525.54  1683.7  525.75  1696.9  525.78
  1705.1  525.71  1711.4  525.65  1726.5  525.29  1746.3   524.9  1747.9  524.86
  1749.2  524.85  1758.5  524.95  1769.3  525.08  1786.9  525.18  1795.6  525.18
  1812.1  525.23  1824.7  525.18  1833.5  525.04    1845  524.89  1862.5  524.49
  1876.3  524.12  1894.3  523.81  1900.3  523.74  1919.1  523.66  1938.1  523.55
  1961.9  523.35  1975.9  523.26  1983.3  523.26    1993   523.2  2004.7  523.25
  2026.1   523.4  2042.4  523.26  2047.5   523.2  2051.4  523.21  2068.9  523.38
  2080.9  523.58  2089.2   523.7  2091.7  523.66  2111.7  522.85    2127  522.34
  2141.1  521.71  2154.5  521.14  2164.8   520.6  2175.9  520.39  2190.4  520.86
  2197.3  521.05  2202.6  521.25  2218.7  521.57  2239.8  521.81  2240.1  521.81
  2240.3   521.8  2242.1  521.78  2261.5  521.49  2278.1  521.22  2289.1  521.03
  2304.3  520.81  2325.7   520.6  2338.5  520.38  2347.1  520.27  2353.7   520.2
  2368.5  520.09  2387.8  519.75  2389.9  519.71  2391.5  519.68  2403.3  519.57
  2411.3  519.48  2429.2  519.41  2432.7  519.37  2454.1  519.38    2467  519.59
  2475.5  519.68  2486.5  519.57  2496.9   519.6  2535.9  520.21  2539.7  520.29
  2542.6  520.31  2561.1  520.58  2580.4   520.8  2582.5  520.88  2585.2  520.96
  2603.9   521.8  2625.3   522.6  2634.6   522.9  2646.7  523.29  2655.9  523.67
  2668.1  524.26  2683.9  524.98  2689.5  525.24  2710.9  526.39  2725.8  526.94
  2732.3  527.19  2733.3  527.21  2753.7  527.44  2769.3  527.53  2775.1  527.47
  2782.6  527.32  2796.5  527.03  2807.1  526.86  2812.5  526.82
#Mann= 1 ,-1,0
       0    .015       0
Bank Sta=987.6,1485.8
XS Rating Curve= 0 ,0
XS HTab Starting El and Incr=515.53,0.3, 50 
XS HTab Horizontal Distribution= 5 , 5 , 5 
Exp/Cntr(USF)=0,0
Exp/Cntr=0.3,0.1

Type RM Length L Ch R = 1 ,70572   ,1268.9,1268.9,1268.9
XS GIS Cut Line=2
 13946.3251107721917379.4891004112376.17126461821919298.56602349
Node Last Edited Time=Mar/04/2023 17:50:55
#Sta/Elev= 159 
       0  527.55    13.6  527.68    17.5   527.7    38.8   527.7    59.4  527.78
    81.4  527.99   124.1  528.32     137  528.35   145.4   528.4   166.7  528.58
     188  528.66   214.5  528.84   230.7  528.97   253.2  529.13   273.3  529.23
     292  529.28   294.6   529.3   297.8  529.32   315.9  529.53   330.8  529.74
   337.3   529.8   358.6   529.9   369.5  530.02   379.9  530.11   392.6  530.21
   401.2  530.26   408.3  530.33   422.5  530.53     440  530.83   447.1  530.91
   465.2  530.89   487.3  530.97   524.6  530.99   550.5  530.94   563.3  530.98
   571.8  530.96   582.1  530.87   602.1  530.56   614.4   530.4   629.5  530.06
   635.7  529.89   640.9  529.72     657  528.96   679.6  527.79   699.7   526.7
   718.4  525.74     721  525.64   724.2  525.55   742.3  525.06   757.1  524.76
   763.6  524.67   771.6  524.64     785  524.54   795.9  524.48   806.3  524.47
     819  524.54   834.7  524.67   848.9  524.73   866.3  524.78   870.2   524.8
   873.4  524.82   891.6  524.87   905.4  524.77   913.7  524.72   934.2  524.87
     951  524.96   976.8  525.24  1008.5  525.54  1028.5  525.78  1055.8  526.33
  1062.1  526.42  1067.2  526.46  1083.4  526.38  1103.2  525.91    1106  525.77
  1118.6  525.37  1126.1  525.09  1144.8  525.42  1147.4  525.45  1150.6  525.43
  1168.7  523.44  1183.5  518.07    1184517.8985    1190  515.84    1198     515
  1571.1     515  1573.8  515.06    1577  515.28  1595.1  518.13  1609.9  522.25
  1616.4  524.22  1624.3  525.82  1632.2526.6925  1637.7   527.3  1648.7  527.72
  1671.7  527.45  1680.4  527.31  1687.4  527.16  1701.7   526.8  1719.1  526.35
  1726.2  526.22  1744.3  525.75  1758.1  525.01    1765  524.67  1766.5  524.62
    1787  524.51  1808.3  524.27  1829.6   523.8  1842.5  523.56  1861.2  523.15
  1872.2  522.84  1881.2   522.5  1893.6  521.89    1920  520.78  1936.2  520.29
  1957.5  519.87  1971.3  519.46  1978.8  519.22  1997.5  519.06  2003.3  519.15
  2021.5  519.37  2036.3  519.27  2042.8  519.13  2064.1  518.47    2075  518.39
  2085.4  518.51  2106.7  519.31  2113.8  519.53  2128.1  519.87  2145.5   520.3
  2149.4  520.38  2152.6  520.38  2170.7  520.34  2184.5   520.4  2191.3  520.43
    2192  520.45  2213.3  521.27  2230.1  521.96  2234.7  522.11  2240.2  522.23
    2256  522.45  2307.6  523.65  2319.9  523.68    2335  523.53  2341.3  523.33
  2346.4  523.51  2362.6   523.5  2382.4  523.21  2383.9  523.07  2385.1  523.05
  2397.7   522.9  2405.2  522.78  2423.9  523.38  2426.5  523.39  2429.7  523.36
  2447.8  522.46  2462.7  522.82  2477.1  522.68  2479.6   522.5
#Mann= 1 ,-1,0
       0    .015       0
Levee=0,,,-1,1651.69,527.75,,
Bank Sta=1184,1632.2
XS Rating Curve= 0 ,0
XS HTab Starting El and Incr=515.15,0.3, 53 
XS HTab Horizontal Distribution= 5 , 5 , 5 
Exp/Cntr(USF)=0,0
Exp/Cntr=0.3,0.1

Type RM Length L Ch R = 1 ,66409   ,1950.4,1950.4,1950.4
XS GIS Cut Line=2
13363.62357231051916322.2521773310781.59280307971919008.95986964
Node Last Edited Time=Mar/04/2023 17:47:55
#Sta/Elev= 232 
       0  527.02    13.5  526.93    37.4  526.83    73.8  526.72    80.7  526.72
   115.4  526.78     124  526.82   157.1  526.92   162.1   526.9   198.7  526.88
   210.6  526.92   240.3   527.1   253.8  527.16   268.1  527.17   281.9   527.2
   289.4  527.19   323.5  527.31   340.4  527.33     353  527.37   374.2  527.55
   383.7  527.58   406.7  527.48   416.7  527.45     427  527.45   437.9  527.52
   459.1  527.71   470.3  527.83   489.9  527.99   501.5  528.02   513.6   528.1
   531.5  528.16     544  528.23   556.9  528.33   565.2  528.45   573.1  528.52
   586.4  528.68   607.6  528.98   614.7  529.06   643.5  529.19   656.4  529.17
   671.3  529.29   686.8  529.37   692.5  529.41   713.7  529.46   730.1  529.42
   739.6  529.42   756.1  529.44   777.4   529.5   781.2  529.49   798.6  529.35
   816.7  529.26   819.8  529.25   822.8  529.24     841  529.24   864.4  529.31
   883.4  529.21   903.3  529.08   904.7  529.07     906  529.08   947.1  529.56
   973.3  529.65  1010.7  529.73  1030.8  529.85    1032  529.85  1033.2  529.87
  1053.2  530.12  1074.4  530.14  1095.6  530.26    1114  530.24  1116.8  530.22
  1119.7   530.2  1138.1  530.22  1155.6  530.43  1159.3  530.46    1163  530.49
  1197.3  530.59  1201.7  530.61  1206.3  530.65  1222.9  530.68  1238.9  530.62
  1244.1  530.59  1249.6  530.59  1265.4  530.49  1292.9  530.18    1329  529.65
  1336.2  529.59  1350.2  530.13  1363.7  530.82  1371.4  530.89  1379.5   530.5
  1392.7  529.42  1405.3  527.96  1413.9  527.33  1422.8  526.82  1435.1  526.32
 1449.32  526.12  1456.3  525.73  1466.1  525.52  1477.5  525.15  1488.5  524.97
  1498.7  523.62  1509.4  519.82    1520  515.97  1526.9 515.116  1530.1  514.72
  1946.2  514.72  1965.5  517.08  1985.6  522.75  1986.7  523.09  1987.8  523.36
    2008  525.57    2018525.6465 2027.32   525.6  2050.4  525.01    2071  524.22
  2112.6  521.79  2114.1  521.73  2115.5  521.66  2135.3  520.76  2154.2  519.83
  2156.5  519.73  2158.8  519.64  2177.7  518.58  2195.9  516.75  2198.9  516.47
  2202.1  516.38  2320.7  516.38  2326.2  516.43    2332  516.38  2461.9  516.38
  2474.7  517.49  2487.1  520.76    2496  523.15  2505.2  524.04  2517.2   524.4
  2528.7   524.9  2538.4   525.3  2548.5  525.57  2559.6  525.69  2570.3  525.53
  2580.8   525.5  2591.8  525.66  2611.9  526.02  2623.3  526.25  2635.1  526.56
  2644.5  526.86  2653.5  526.92  2665.7  526.89  2678.4  526.88  2686.9  526.72
  2695.1  526.25  2708.1     525  2729.4  522.35  2736.8  521.54  2750.6  520.49
    2765  519.93  2771.8   519.9  2778.4  520.14    2793  520.94  2808.2  521.62
  2814.2  522.04    2820  522.52  2835.4  523.57  2851.5  524.37  2856.7  524.65
  2861.6  524.98  2877.9  526.36  2894.8  527.52  2899.1  527.96  2903.2  528.45
  2920.3   532.3  2938.1  537.76  2941.5  538.68  2944.8  539.83  2962.7  546.31
  2981.4  552.58    2984  552.73  2986.4  552.64  3005.2  551.89  3026.4   554.9
    3028  554.56  3047.6  550.38    3068  547.55  3068.8  547.79  3069.6  548.06
  3090.1  553.96  3111.2  555.41  3111.3  555.41  3132.5  555.49  3153.7  555.81
  3174.9   555.8  3194.4  555.92  3259.8  556.41  3277.7  556.32    3281  556.38
  3284.5  556.41  3302.2     557  3319.3  556.52  3323.4  556.44  3327.8  556.46
  3344.7  556.69  3360.9  556.66  3365.9  556.63  3371.1  556.62  3387.1  556.72
  3402.5  556.83  3408.3  556.85  3414.4  556.92  3429.5  556.91  3444.1  556.97
  3450.7  556.94  3457.7  556.94    3472  556.97  3485.7  557.08  3493.2  557.16
  3514.4  557.34  3535.6  557.43  3556.8  557.62  3568.9  557.83  3578.1  557.99
  3587.6  558.08  3599.3  558.12  3620.5  558.16  3630.9  558.23  3641.7  558.36
  3652.1  558.54  3662.9   558.7  3674.1  558.85  3693.7  559.07  3705.4  559.29
  3717.4  559.63  3726.3  559.89
#Mann= 1 ,-1,0
       0    .015       0
Levee=0,,,-1,2018.69,525.6,,
Bank Sta=1526.9,2018
XS Rating Curve= 0 ,0
XS HTab Starting El and Incr=514.87,0.3, 100 
XS HTab Horizontal Distribution= 5 , 5 , 5 
Exp/Cntr(USF)=0,0
Exp/Cntr=0.3,0.1

Type RM Length L Ch R = 1 ,60010   ,2225.2,2225.2,2225.2
XS GIS Cut Line=2
11479.43895692581915380.159869649246.331264618141918031.97525426
Node Last Edited Time=Mar/04/2023 17:46:58
#Sta/Elev= 231 
       0     527       7  526.98    26.3  526.81    49.2   526.7    68.9  526.57
    90.2   526.4    95.8  526.38   124.6   526.2   132.7  526.12   142.4  526.01
     154  525.93   163.8  525.95   175.3  526.01     189  526.03   203.1  526.01
   239.2   526.1   260.5   526.1   281.5  526.22   303.1  526.17   320.7  526.25
   324.4  526.26   345.7  526.21   366.9  526.25   399.2  526.22   409.5  526.25
   421.8   526.2   430.8  526.19   438.4  526.16   452.1  526.23   468.4  526.28
   473.4  526.32   477.6  526.32   516.8  526.69   556.1  526.88   579.9  526.88
   622.4  527.01   634.5  527.01   643.7  526.96   654.7  526.82   673.7  526.46
   707.6  526.05   712.9  525.96   728.9  525.77   771.5  525.43   791.4  525.41
   814.1  525.42   830.6   525.4     841  525.41   856.6  525.44   877.9  525.41
     909  525.68   934.1  525.99   941.8  526.14   948.3  526.29   963.1  526.66
   984.4  527.23  1005.7  527.95    1027  528.62  1048.3  529.04  1073.9  529.49
  1090.8  529.76  1105.1  529.85  1120.4   529.9  1144.4     530  1154.7  530.01
    1167  529.94    1176  529.83  1197.3  529.47  1213.6  529.16  1218.6   529.1
  1222.8   529.1  1239.9  529.35  1261.2  529.79    1262  529.81  1282.5  530.82
  1301.2  531.51  1303.7  531.07  1306.7  529.95  1317.8524.8913    1325  521.61
  1340.5  516.03  1346.3  514.88  1353.3  514.45  1732.7  514.44  1744.5515.8858
  1750.9  516.67  1768.7   522.9  1772.1  524.03  1772.5  524.06  1793.4  523.71
  1811.1  523.33  1814.7  523.12    1819   522.9    1836  522.29  1850.3  522.12
  1857.3  522.19  1865.6  522.03  1878.6  521.64  1889.5  521.62  1899.9  521.74
  1912.2  521.61  1921.2  521.47  1928.8  521.17  1942.5  519.65  1958.8  515.79
  1963.8  514.91    1968  514.38  2006.3  514.39  2027.6  515.11  2046.4  515.95
  2048.9   516.1  2051.9  516.38  2070.2  517.55  2085.6   518.6  2091.5  519.06
  2098.5  519.52  2112.8  520.39  2124.9  520.88  2134.1  520.88  2145.1  520.71
  2155.4  520.65  2164.1  521.18  2176.7  522.47  2191.6  524.07    2198   524.6
  2203.3  524.73  2219.3  524.57  2238.2  524.43  2240.5  524.48  2242.5  524.63
  2261.8  526.28  2281.7  528.97  2283.1   529.2  2284.8  529.57  2304.4   534.6
    2321  540.63  2325.7  542.55  2331.4  544.78    2347  550.03  2360.2  554.41
  2368.3  556.48  2377.9  558.09  2389.6  559.38  2399.4  560.39  2410.9  561.03
  2424.5  561.56  2432.2  561.98  2438.6  562.49  2453.5  563.53  2471.1  564.17
  2474.8   564.2  2477.8  564.28    2496  564.65  2517.1  564.96  2517.3  564.97
  2538.6  565.71  2556.3  566.13  2559.9  566.27  2581.2  567.22  2595.5  567.82
  2602.5  568.04  2634.7   568.7  2645.1  568.96  2657.4  569.24  2666.4  569.42
  2673.9  569.63  2687.7  569.85  2703.9  570.02    2709  570.06  2713.2  570.16
  2730.2  570.45  2750.5  570.54  2752.4  570.57  2772.8   570.9  2794.1  571.16
  2797.1  571.18  2815.4  571.37  2830.8  571.46  2836.7  571.56  2843.7  571.59
    2870  571.98  2879.3  572.07  2909.3  572.23  2921.9  572.39  2936.8   572.4
  2943.2  572.44  2948.5  572.45  2964.4  572.67  2983.4  572.61  2985.7  572.63
  2987.7  572.64    3007  572.82  3026.9  572.71  3028.3   572.7    3030   572.7
  3049.6  572.71  3066.1  572.49  3070.9  572.45  3076.5  572.46  3092.2  572.55
  3105.4  572.44  3113.5  572.43  3123.1  572.42  3134.8  572.52  3144.6  572.53
  3156.1  572.66  3169.7  572.78  3177.4  572.91  3183.8  572.99  3198.6  573.27
  3216.3  573.47  3219.9  573.53  3241.2     574  3259.1  574.26  3262.2  574.31
  3283.8  574.54  3301.5  574.53  3305.1  574.53  3309.4  574.51  3326.4  574.58
  3340.7  574.56    3369  574.74  3379.9  574.61  3390.3  574.54  3402.6  574.56
  3411.6  574.65  3419.1  574.66  3432.8  574.62  3449.1  574.43  3454.1  574.42
  3466.8  574.32
#Mann= 1 ,-1,0
       0    .015       0
Levee=0,,,-1,1776.62,523.98,,
Bank Sta=1317.8,1744.5
XS Rating Curve= 0 ,0
XS HTab Starting El and Incr=514.59,0.3, 100 
XS HTab Horizontal Distribution= 5 , 5 , 5 
Exp/Cntr(USF)=0,0
Exp/Cntr=0.3,0.1

Type RM Length L Ch R = 1 ,52709   ,1860.6,1860.6,1860.6
XS GIS Cut Line=2
10048.85434154121913635.544485037466.823572310431916740.95986964
Node Last Edited Time=Mar/04/2023 17:47:01
#Sta/Elev= 260 
       0  529.96    17.4  529.95    51.9  529.85    78.9  529.61   100.2  529.46
     130  529.36   142.8  529.24   164.1  529.14     169  529.15   185.4     529
     208  528.74     228  528.61     252  528.54   270.6  528.35     286  528.17
   298.9  527.99   325.1  527.76   334.5  527.74   345.9  527.62   355.8  527.55
   364.1  527.44   377.1  527.38   398.4  527.39   419.7  527.21   439.7  527.07
   481.1  526.86   483.6  526.86   486.6  526.85   504.9  526.88   520.1  526.86
   526.2  526.87   547.5  526.81   559.1  526.74   568.8  526.74   580.5  526.76
   590.1  526.84   598.2  526.88   611.4  526.91   627.4  526.85   674.3  526.81
   715.2  526.66     718  526.66   721.3  526.66   739.3  526.59   768.2  526.38
   781.9  526.36   803.2  526.34   815.1  526.24   824.5  526.18   845.8  526.24
   867.1  526.34   871.3  526.38   888.4   526.4   910.3  526.28     931  526.76
   949.3   527.1   973.6  526.74   988.3  526.36   994.9  526.36  1002.8  526.42
  1016.2  526.68  1027.3   526.8  1049.7  523.77  1058.8  522.65  1066.3  522.24
  1080.1  523.97  1096.6  525.21  1105.4  525.65  1122.7  525.52    1144   525.4
  1165.3   525.1  1183.4  525.22  1190.5  525.23  1207.9  524.66  1222.4  523.79
  1229.2  523.46  1237.4  523.64  1250.5  524.34  1261.4  525.18  1271.8  525.52
  1284.3  525.67  1293.1  525.62  1300.4  525.49  1314.4  525.62  1331.3  525.82
  1335.7  525.59  1339.5  525.71    1357  525.79  1378.2  526.74  1399.6  524.36
  1417.5  522.61  1420.9  522.48  1425.1  522.78  1442.3  523.63  1456.5  522.38
  1463.6  521.55    1472  520.47  1484.9  521.23  1495.5  520.37  1506.2  521.89
    1519  523.85  1527.5   525.4  1534.5  526.46  1548.8  526.32  1565.9  526.31
  1570.1  526.32  1573.5  526.34  1591.4  526.28  1612.7  526.31    1634  526.21
  1655.3  526.31  1676.6  526.32  1697.9  526.43  1706.7  526.45  1719.2  526.36
  1729.6   526.4  1740.5  526.42  1753.6  526.37  1761.8  526.32  1768.6  526.34
  1783.1  526.66  1804.4  527.29  1825.7  527.55  1846.7  527.99  1868.3  529.33
  1885.7  529.83  1889.6  529.64  1894.4  529.08  1910.9  526.09  1924.7  522.69
  1932.2   520.5  1941.3  517.97  1953.5  515.17  1957.4514.8527  1963.7  514.34
  2292.8  514.34  2457.4  514.34  2464.8  515.11  2470.9  517.01  2486.1  523.03
  2504.4  528.16  2507.4  528.89  2509.9  529.33  2528.7  533.35  2537.3  536.09
  2548.9  539.69  2551.3  540.55  2571.3  546.16  2592.6     554  2598.2  556.14
  2613.9  560.46    2627  563.44  2635.2  564.32  2645.1  565.66  2656.5   567.7
    2666  568.75  2677.8  569.65  2692.1  570.16  2699.1  570.55    2705  571.03
  2720.4  572.68    2739  574.21  2741.7  574.39    2744  574.47    2763  574.88
  2784.3  575.65  2785.9  575.68    2822  576.61  2826.9  576.81  2848.2  577.54
  2861.1  577.74  2890.8  577.85  2912.1  578.04  2926.7  578.23  2933.5  578.36
  2954.8  578.89  2973.6  578.99  2976.1  578.99  3017.1  579.51  3018.7  579.53
  3020.5  579.57    3040  579.92  3056.1  580.09  3061.3  580.14  3067.4   580.2
  3082.6  580.43  3095.1  580.63  3103.9   580.8  3114.4  580.97  3125.2  581.12
  3134.2  581.23  3146.5   581.3  3167.8  581.37  3173.2  581.39  3189.1  581.56
  3208.2  581.84  3210.4  581.87  3231.7  582.15  3231.8  582.15    3253  582.58
  3255.1  582.61  3274.3  582.78  3302.1  583.04  3316.9  583.19  3338.2  583.53
  3359.5  583.66  3380.8  583.95  3402.1     584  3407.3  584.03  3423.4  584.18
  3442.8   584.5  3444.7  584.54  3463.2  584.91    3466  584.96  3485.3   585.3
  3487.3  585.35  3489.8  585.39  3508.6  585.66  3524.3  585.76  3529.9  585.83
  3551.2  586.02  3563.3  586.08  3572.5  586.08  3583.6  586.02  3593.8  586.02
  3602.3  586.07  3630.5  586.03  3677.5  586.13    3679  586.14  3680.4  586.14
  3700.4  586.28  3719.4  586.45  3721.7   586.5  3724.4  586.52    3743  586.74
  3758.4  586.96  3764.3  587.07  3771.3  587.21  3785.6  587.39  3797.4  587.52
  3806.9   587.5  3836.4  587.56  3849.5  587.47  3870.8  587.11  3875.4  586.89
  3892.1  586.05  3912.1   585.4  3913.4  585.37  3914.5  585.36  3926.2  585.28
  3934.7  585.24  3953.5  584.85    3959  584.64  3977.3  584.06  3992.5  583.69
  3998.6  583.58  4005.9  583.58  4019.9  583.41  4031.5  583.23  4038.6  583.11
#Mann= 1 ,-1,0
       0    .015       0
Levee=-1,1884.51,529.7,0,,,,
Bank Sta=1957.4,2292.8
XS Rating Curve= 0 ,0
XS HTab Starting El and Incr=514.4901,0.3, 100 
XS HTab Horizontal Distribution= 5 , 5 , 5 
Exp/Cntr(USF)=0,0
Exp/Cntr=0.3,0.1

Type RM Length L Ch R = 1 ,46604   ,1594.1,1594.1,1594.1
XS GIS Cut Line=2
9804.608187695051910669.698331185931.562033848871915868.65217733
Node Last Edited Time=Jun/21/2021 16:52:42
#Sta/Elev= 452 
       0  622.28    11.5  622.29    44.6  622.27    51.9  622.22    61.7  622.19
    73.4  622.25      82  622.26   111.9  622.21   119.4  622.16   162.2  621.57
   180.6  621.02   194.3  620.51     202   620.3   223.4  619.86   231.7   619.6
   244.9  619.27   262.6  618.76   266.3  618.69   269.1  618.68   287.8  618.83
   306.5  619.16   309.2  619.17   312.8  619.12   330.6  618.39   343.9  617.69
   352.1  617.03   373.5  614.83   381.3   613.9   394.9  611.81   413.2  607.96
   416.4  607.38   418.7  606.99   434.7  609.44   437.8  609.89   456.1  613.46
   459.3  612.98   463.5   611.4   480.7  605.66   493.5  599.68   502.1  599.07
   513.7   597.4   523.6  597.12     531  596.03     545   595.3   563.9  589.58
   568.4  590.39   587.9  598.27   605.8  605.31   609.3  606.28   614.1  607.28
   630.8   608.7   643.2  610.44   652.2  610.69   664.3  611.11   673.7  610.92
   680.6  610.86   695.1   611.8   714.5  613.73     718  613.86   728.1  614.45
     738  614.99   755.4  616.37   759.4  616.64   764.8  617.12   780.8  618.04
   792.8  618.75   802.3  618.92     815  619.74   823.7  620.12   830.2  620.44
   845.2  620.31   865.2   620.9   867.6  620.87   874.8  620.41     888  619.32
   905.1  619.91   909.5  619.68   915.4  620.07   930.9  619.05   942.5  619.46
   952.4  618.87   965.6  617.62   973.8  616.31   979.9  615.79   995.2  611.46
  1017.3  604.71  1021.5   603.1  1038.1  596.54  1054.7  591.01  1059.5  589.31
  1066.1  587.66    1081  582.86  1092.1  579.79  1102.4  576.62  1116.3  573.29
  1123.9   570.3  1129.5  568.69  1145.3  565.88  1166.5  563.18  1166.7  563.19
  1166.9  563.18  1168.2  563.14  1188.2  562.76  1204.3  560.87  1209.6  561.61
  1216.7  560.71  1231.1  560.72  1241.7  559.27  1252.5   559.6  1266.9  557.91
  1273.9  559.08  1279.1  558.89  1295.4  559.97  1314.8  559.86  1316.6  559.87
  1316.8  559.88  1317.1  559.83  1338.2  559.02    1354  558.73  1359.7  558.71
  1367.4  557.88  1381.1  556.66  1391.4  553.97  1402.6   553.3  1417.6  551.52
    1424  552.64  1428.8  552.22  1445.4  553.68  1461.5  553.73  1466.2  553.81
  1466.9  553.82  1467.8  553.68  1488.3  552.85  1503.6  553.08  1509.8  554.43
    1518   555.1  1531.2   554.7    1541  553.14  1552.6  550.99  1568.2  548.47
  1574.1  547.56  1578.4  547.11  1595.5  545.43  1608.2   545.3  1615.8  545.13
  1616.9  545.18  1638.4  543.77  1659.8  542.87  1668.7  541.93  1681.3  541.05
  1690.7  540.68  1702.7  540.78  1718.9  540.18  1724.1  539.85  1728.1  539.63
  1745.6  539.09  1765.5  538.38    1767  538.26  1769.1  538.26  1788.5  537.83
  1802.9  537.99  1819.3  536.15  1831.3  534.86  1840.3  534.08  1852.8   533.3
  1869.5   531.1  1877.7  529.88  1895.6  528.26  1901.6  527.96  1915.1  527.18
  1917.1  527.11  1938.5  526.58    1960  526.18    1970  526.05  1989.9  525.71
  2002.8  525.44  2020.2  525.11  2024.3  525.03  2027.3  524.97  2045.7  524.78
  2067.2  524.61  2088.6  524.37  2102.2  524.31  2131.5  524.28  2139.6  524.34
  2152.9  524.37  2174.4  524.35    2177  524.36  2195.8  524.53  2251.8  524.71
  2260.1  524.68  2271.3  524.69  2289.2  524.82    2303  524.83  2321.5   524.9
  2326.6   524.9  2345.9  524.79  2371.7  524.68  2410.2   524.4  2421.9  524.27
  2431.6  524.08  2438.8  523.98  2453.1  523.85  2472.1   523.8  2476.3  523.77
  2495.9  523.65  2513.7  523.57  2538.8  523.66  2551.1   523.6  2581.7  523.73
  2588.5  523.73  2603.1  523.85  2624.6  524.08    2635  524.09    2646  524.11
  2663.3  523.98    2673  523.88  2688.9  523.82  2700.7  523.74  2723.2  523.53
  2753.2  523.33  2773.4  523.31  2812.9  523.38  2817.5  523.36  2823.6  523.37
  2838.9  523.38  2860.4  523.47  2881.8  523.48  2924.7  523.56  2962.6  523.83
    3000  523.95  3010.5  523.96  3031.9  523.95  3037.4  523.99  3074.8  524.41
  3096.2  524.43  3112.2  524.49  3117.6  524.54  3124.9  524.58  3139.1  524.63
  3149.6  524.63  3160.5  524.61  3203.4  524.63  3221.7   524.6  3224.4   524.6